# SFR package for  MODFLOW-NWT, generated by Flopy.
1184 45 0 0 128390.40000000 0.00010000 70 100 
1 8 64 1 1 11.0
1 8 63 1 2 234.0
1 9 63 1 3 273.0
1 10 63 1 4 119.0
1 10 62 1 5 146.0
1 11 62 1 6 260.0
1 12 62 1 7 261.0
1 13 62 1 8 210.0
1 13 61 1 9 51.0
1 14 61 1 10 264.0
1 15 61 1 11 265.0
1 16 61 1 12 175.0
1 16 60 1 13 91.0
1 17 60 1 14 266.0
1 18 60 1 15 273.0
1 19 60 1 16 44.0
1 19 59 1 17 232.0
1 20 59 1 18 276.0
1 21 59 1 19 251.0
1 22 59 1 20 107.0
1 22 58 1 21 144.0
1 23 58 1 22 137.0
1 23 59 1 23 116.0
1 24 59 1 24 254.0
1 25 59 1 25 267.0
1 26 59 1 26 225.0
1 26 60 1 27 51.0
1 27 60 1 28 3.0
1 27 59 1 29 286.0
1 28 59 1 30 213.0
1 28 58 1 31 72.0
1 29 58 1 32 266.0
1 30 58 1 33 266.0
1 31 58 1 34 196.0
1 31 57 1 35 59.0
1 32 57 1 36 253.0
1 33 57 1 37 254.0
1 34 57 1 38 250.0
1 35 57 1 39 253.0
1 36 57 1 40 268.0
1 36 56 1 41 9.0
1 37 57 1 42 251.0
1 38 57 1 43 251.0
1 39 57 1 44 256.0
1 40 57 1 45 268.0
1 41 57 1 46 150.0
1 41 58 1 47 117.0
1 42 58 1 48 263.0
1 43 58 1 49 261.0
1 44 58 1 50 255.0
1 45 58 1 51 251.0
1 46 58 1 52 158.0
1 46 59 1 53 102.0
1 47 59 1 54 258.0
1 48 59 1 55 296.0
1 49 59 1 56 34.0
1 49 60 1 57 283.0
1 1 93 2 1 135.0
1 1 92 2 2 258.0
1 1 91 2 3 85.0
1 2 91 2 4 283.0
1 3 91 2 5 148.0
1 3 90 2 6 125.0
1 4 90 2 7 268.0
1 5 90 2 8 260.0
1 5 89 2 9 14.0
1 6 89 2 10 278.0
1 7 89 2 11 264.0
1 7 88 2 12 18.0
1 8 88 2 13 285.0
1 9 88 2 14 228.0
1 9 87 2 15 51.0
1 10 87 2 16 253.0
1 11 87 2 17 217.0
1 11 88 2 18 36.0
1 12 88 2 19 252.0
1 13 88 2 20 255.0
1 14 88 2 21 105.0
1 14 87 2 22 183.0
1 15 87 2 23 210.0
1 15 86 2 24 148.0
1 16 86 2 25 278.0
1 16 85 2 26 19.0
1 17 85 2 27 266.0
1 18 85 2 28 175.0
1 9 110 3 1 91.0
1 9 109 3 2 290.0
1 9 108 3 3 4.0
1 10 108 3 4 283.0
1 10 107 3 5 226.0
1 11 107 3 6 60.0
1 11 106 3 7 286.0
1 11 105 3 8 146.0
1 12 105 3 9 159.0
1 12 104 3 10 266.0
1 13 104 3 11 43.0
1 13 103 3 12 284.0
1 13 102 3 13 267.0
1 13 101 3 14 6.0
1 14 101 3 15 250.0
1 14 100 3 16 257.0
1 14 99 3 17 279.0
1 14 98 3 18 25.0
1 15 98 3 19 258.0
1 15 97 3 20 253.0
1 16 97 3 21 37.0
1 16 96 3 22 335.0
1 16 95 3 23 21.0
1 17 95 3 24 335.0
1 17 94 3 25 101.0
1 18 94 3 26 162.0
1 18 93 3 27 257.0
1 18 92 3 28 253.0
1 18 91 3 29 252.0
1 18 90 3 30 252.0
1 18 89 3 31 251.0
1 18 88 3 32 249.0
1 18 87 3 33 250.0
1 18 86 3 34 226.0
1 19 84 4 1 235.0
1 20 84 4 2 191.0
1 20 83 4 3 103.0
1 21 83 4 4 301.0
1 22 83 4 5 44.0
1 22 82 4 6 257.0
1 23 82 4 7 191.0
1 23 81 4 8 111.0
1 24 81 4 9 301.0
1 25 81 4 10 36.0
1 25 80 4 11 265.0
1 26 80 4 12 176.0
1 26 79 4 13 134.0
1 27 79 4 14 280.0
1 27 78 4 15 33.0
1 28 78 4 16 314.0
1 29 78 4 17 67.0
1 29 77 4 18 247.0
1 30 77 4 19 167.0
1 30 76 4 20 146.0
1 31 76 4 21 268.0
1 31 75 4 22 46.0
1 32 75 4 23 314.0
1 33 75 4 24 50.0
1 33 74 4 25 281.0
1 34 74 4 26 99.0
1 34 73 4 27 233.0
1 35 73 4 28 146.0
1 35 72 4 29 186.0
1 36 72 4 30 194.0
1 36 71 4 31 138.0
1 37 71 4 32 260.0
1 37 70 4 33 56.0
1 38 70 4 34 314.0
1 39 70 4 35 43.0
1 39 69 4 36 272.0
1 40 69 4 37 140.0
1 40 68 4 38 174.0
1 41 68 4 39 239.0
1 41 67 4 40 83.0
1 42 67 4 41 271.0
1 42 66 4 42 83.0
1 43 66 4 43 271.0
1 43 65 4 44 82.0
1 44 65 4 45 301.0
1 44 64 4 46 24.0
1 45 64 4 47 293.0
1 46 64 4 48 161.0
1 46 63 4 49 132.0
1 47 63 4 50 305.0
1 47 62 4 51 10.0
1 48 62 4 52 335.0
1 48 61 4 53 27.0
1 49 61 4 54 260.0
1 50 60 5 1 146.0
1 51 60 5 2 255.0
1 52 60 5 3 250.0
1 53 60 5 4 250.0
1 54 60 5 5 285.0
1 55 60 5 6 150.0
1 55 59 5 7 155.0
1 56 59 5 8 253.0
1 57 59 5 9 250.0
1 58 59 5 10 250.0
1 59 59 5 11 250.0
1 60 59 5 12 151.0
1 8 29 6 1 21.0
1 9 29 6 2 250.0
1 10 29 6 3 251.0
1 11 29 6 4 258.0
1 12 29 6 5 256.0
1 13 29 6 6 250.0
1 14 29 6 7 250.0
1 15 29 6 8 250.0
1 16 29 6 9 251.0
1 17 29 6 10 168.0
1 10 16 7 1 178.0
1 10 17 7 2 254.0
1 10 18 7 3 253.0
1 10 19 7 4 252.0
1 10 20 7 5 106.0
1 11 20 7 6 156.0
1 11 21 7 7 299.0
1 11 22 7 8 69.0
1 12 22 7 9 223.0
1 12 23 7 10 270.0
1 12 24 7 11 91.0
1 13 24 7 12 179.0
1 13 25 7 13 263.0
1 14 25 7 14 86.0
1 14 26 7 15 230.0
1 15 26 7 16 233.0
1 15 27 7 17 57.0
1 16 27 7 18 306.0
1 17 27 7 19 63.0
1 17 28 7 20 220.0
1 18 29 8 1 226.0
1 19 29 8 2 113.0
1 19 30 8 3 147.0
1 20 30 8 4 255.0
1 21 30 8 5 257.0
1 22 30 8 6 260.0
1 23 30 8 7 129.0
1 23 31 8 8 131.0
1 24 31 8 9 264.0
1 25 31 8 10 268.0
1 26 31 8 11 93.0
1 26 32 8 12 174.0
1 27 32 8 13 288.0
1 28 32 8 14 87.0
1 28 33 8 15 213.0
1 29 33 8 16 242.0
1 29 34 8 17 57.0
1 30 34 8 18 306.0
1 31 34 8 19 67.0
1 31 35 8 20 251.0
1 32 35 8 21 154.0
1 32 36 8 22 164.0
1 33 36 8 23 234.0
1 33 37 8 24 90.0
1 34 37 8 25 292.0
1 34 38 8 26 39.0
1 35 38 8 27 331.0
1 36 38 8 28 11.0
1 36 39 8 29 324.0
1 37 39 8 30 48.0
1 37 40 8 31 294.0
1 38 40 8 32 72.0
1 38 41 8 33 270.0
1 39 41 8 34 97.0
1 39 42 8 35 228.0
1 40 42 8 36 185.0
1 40 43 8 37 122.0
1 41 43 8 38 308.0
1 42 43 8 39 1.0
1 42 44 8 40 299.0
1 43 44 8 41 164.0
1 43 45 8 42 130.0
1 44 45 8 43 299.0
1 45 45 8 44 30.0
1 45 46 8 45 275.0
1 46 46 8 46 161.0
1 46 47 8 47 144.0
1 47 47 8 48 276.0
1 47 48 8 49 40.0
1 48 48 8 50 334.0
1 49 48 8 51 4.0
1 49 49 8 52 342.0
1 50 49 8 53 17.0
1 50 50 8 54 293.0
1 51 50 8 55 266.0
1 52 50 8 56 10.0
1 52 51 8 57 284.0
1 53 51 8 58 160.0
1 53 52 8 59 159.0
1 54 52 8 60 245.0
1 54 53 8 61 76.0
1 55 53 8 62 300.0
1 55 54 8 63 34.0
1 56 54 8 64 317.0
1 56 55 8 65 54.0
1 57 55 8 66 251.0
1 57 56 8 67 185.0
1 58 56 8 68 153.0
1 58 57 8 69 170.0
1 59 57 8 70 215.0
1 59 58 8 71 146.0
1 60 58 8 72 157.0
1 61 59 9 1 239.0
1 62 59 9 2 112.0
1 62 60 9 3 161.0
1 63 60 9 4 263.0
1 64 60 9 5 274.0
1 64 61 9 6 3.0
1 65 61 9 7 286.0
1 66 61 9 8 252.0
1 66 62 9 9 25.0
1 67 62 9 10 273.0
1 68 62 9 11 259.0
1 69 62 9 12 122.0
1 69 63 9 13 187.0
1 70 63 9 14 288.0
1 71 63 9 15 230.0
1 71 64 9 16 21.0
1 72 64 9 17 249.0
1 73 64 9 18 138.0
1 73 63 9 19 170.0
1 74 63 9 20 166.0
1 74 62 9 21 155.0
1 75 62 9 22 263.0
1 76 62 9 23 251.0
1 77 62 9 24 249.0
1 78 62 9 25 218.0
1 78 61 9 26 56.0
1 79 61 9 27 256.0
1 80 61 9 28 252.0
1 81 61 9 29 250.0
1 82 61 9 30 257.0
1 83 61 9 31 116.0
1 83 62 9 32 143.0
1 84 62 9 33 254.0
1 85 62 9 34 250.0
1 86 62 9 35 251.0
1 87 62 9 36 168.0
1 87 61 9 37 78.0
1 38 10 10 1 126.0
1 39 10 10 2 61.0
1 39 11 10 3 277.0
1 40 11 10 4 95.0
1 40 12 10 5 238.0
1 41 12 10 6 158.0
1 41 13 10 7 152.0
1 42 13 10 8 271.0
1 42 14 10 9 39.0
1 43 14 10 10 318.0
1 44 14 10 11 48.0
1 44 15 10 12 278.0
1 45 15 10 13 110.0
1 45 16 10 14 199.0
1 46 16 10 15 264.0
1 46 17 10 16 30.0
1 47 17 10 17 311.0
1 48 17 10 18 81.0
1 48 18 10 19 233.0
1 49 18 10 20 169.0
1 49 19 10 21 153.0
1 50 19 10 22 240.0
1 50 20 10 23 86.0
1 51 20 10 24 300.0
1 51 21 10 25 28.0
1 52 21 10 26 328.0
1 52 22 10 27 26.0
1 53 22 10 28 335.0
1 53 23 10 29 11.0
1 54 23 10 30 305.0
1 55 23 10 31 157.0
1 55 24 10 32 160.0
1 56 24 10 33 126.0
1 53 13 11 1 131.0
1 54 13 11 2 291.0
1 54 14 11 3 251.0
1 54 15 11 4 254.0
1 54 16 11 5 101.0
1 55 16 11 6 190.0
1 55 17 11 7 332.0
1 55 18 11 8 257.0
1 55 19 11 9 242.0
1 56 19 11 10 43.0
1 56 20 11 11 324.0
1 57 20 11 12 24.0
1 57 21 11 13 278.0
1 57 22 11 14 250.0
1 57 23 11 15 254.0
1 57 24 11 16 85.0
1 56 25 12 1 176.0
1 57 25 12 2 39.0
1 57 26 12 3 331.0
1 57 27 12 4 9.0
1 58 27 12 5 319.0
1 58 28 12 6 67.0
1 59 28 12 7 262.0
1 59 29 12 8 113.0
1 60 29 12 9 239.0
1 60 30 12 10 115.0
1 61 30 12 11 239.0
1 61 31 12 12 114.0
1 62 31 12 13 279.0
1 62 32 12 14 36.0
1 63 32 12 15 297.0
1 64 32 12 16 90.0
1 64 33 12 17 304.0
1 65 33 12 18 16.0
1 65 34 12 19 275.0
1 65 35 12 20 275.0
1 65 36 12 21 37.0
1 66 36 12 22 251.0
1 66 37 12 23 235.0
1 67 37 12 24 57.0
1 67 38 12 25 262.0
1 67 39 12 26 256.0
1 67 40 12 27 256.0
1 67 41 12 28 106.0
1 68 41 12 29 242.0
1 68 42 12 30 82.0
1 69 42 12 31 301.0
1 69 43 12 32 32.0
1 70 43 12 33 322.0
1 70 44 12 34 32.0
1 71 44 12 35 290.0
1 72 44 12 36 197.0
1 72 45 12 37 80.0
1 73 45 12 38 300.0
1 74 45 12 39 86.0
1 74 46 12 40 219.0
1 75 46 12 41 198.0
1 75 47 12 42 148.0
1 76 47 12 43 182.0
1 76 48 12 44 203.0
1 77 48 12 45 126.0
1 77 49 12 46 253.0
1 78 49 12 47 90.0
1 78 50 12 48 248.0
1 79 50 12 49 124.0
1 79 51 12 50 214.0
1 80 51 12 51 126.0
1 80 52 12 52 269.0
1 80 53 12 53 262.0
1 80 54 12 54 49.0
1 81 54 12 55 207.0
1 81 55 12 56 254.0
1 81 56 12 57 270.0
1 81 57 12 58 125.0
1 82 57 12 59 218.0
1 82 58 12 60 146.0
1 83 58 12 61 248.0
1 83 59 12 62 58.0
1 84 59 12 63 293.0
1 85 59 12 64 273.0
1 86 59 12 65 203.0
1 86 60 12 66 106.0
1 87 60 12 67 175.0
1 88 61 13 1 181.0
1 89 61 13 2 251.0
1 90 61 13 3 250.0
1 91 61 13 4 256.0
1 92 61 13 5 255.0
1 93 61 13 6 255.0
1 94 61 13 7 9.0
1 94 60 13 8 247.0
1 95 60 13 9 257.0
1 96 60 13 10 255.0
1 97 60 13 11 250.0
1 98 60 13 12 250.0
1 99 60 13 13 251.0
1 100 60 13 14 196.0
1 17 128 14 1 311.0
1 17 127 14 2 6.0
1 18 127 14 3 273.0
1 18 126 14 4 267.0
1 18 125 14 5 268.0
1 18 124 14 6 159.0
1 13 126 15 1 7.0
1 14 126 15 2 275.0
1 14 125 15 3 12.0
1 15 125 15 4 311.0
1 15 124 15 5 135.0
1 16 124 15 6 259.0
1 17 124 15 7 170.0
1 17 123 15 8 107.0
1 18 123 15 9 84.0
1 19 123 16 1 302.0
1 20 123 16 2 165.0
1 20 122 16 3 107.0
1 21 122 16 4 290.0
1 21 121 16 5 63.0
1 22 121 16 6 272.0
1 22 120 16 7 110.0
1 23 120 16 8 287.0
1 23 119 16 9 19.0
1 24 119 16 10 306.0
1 25 119 16 11 126.0
1 25 118 16 12 157.0
1 26 118 16 13 278.0
1 27 118 16 14 134.0
1 27 117 16 15 142.0
1 28 117 16 16 277.0
1 29 117 16 17 153.0
1 29 116 16 18 146.0
1 30 116 16 19 261.0
1 30 115 16 20 58.0
1 31 115 16 21 323.0
1 32 115 16 22 90.0
1 32 114 16 23 164.0
1 33 114 16 24 259.0
1 34 114 16 25 282.0
1 35 114 16 26 43.0
1 35 113 16 27 239.0
1 36 113 16 28 276.0
1 37 113 16 29 82.0
1 37 112 16 30 179.0
1 38 112 16 31 255.0
1 39 112 16 32 259.0
1 40 112 16 33 142.0
1 40 111 16 34 201.0
1 41 111 16 35 142.0
1 41 110 16 36 162.0
1 42 110 16 37 282.0
1 43 110 16 38 120.0
1 43 109 16 39 210.0
1 44 109 16 40 164.0
1 44 108 16 41 159.0
1 45 108 16 42 284.0
1 46 108 16 43 83.0
1 46 107 16 44 179.0
1 47 107 16 45 255.0
1 48 107 16 46 250.0
1 49 107 16 47 250.0
1 50 107 16 48 250.0
1 51 107 16 49 250.0
1 52 107 16 50 251.0
1 53 107 16 51 254.0
1 54 107 16 52 253.0
1 55 107 16 53 92.0
1 55 106 16 54 159.0
1 56 106 16 55 250.0
1 57 106 16 56 131.0
1 57 107 16 57 135.0
1 58 107 16 58 165.0
1 30 132 17 1 216.0
1 31 132 17 2 123.0
1 31 131 17 3 159.0
1 32 131 17 4 286.0
1 33 131 17 5 74.0
1 33 130 17 6 213.0
1 34 130 17 7 288.0
1 34 129 17 8 1.0
1 35 129 17 9 324.0
1 36 129 17 10 256.0
1 37 129 17 11 9.0
1 37 128 17 12 246.0
1 38 128 17 13 258.0
1 39 128 17 14 277.0
1 40 128 17 15 85.0
1 40 127 17 16 173.0
1 41 127 17 17 257.0
1 42 127 17 18 204.0
1 42 129 18 1 215.0
1 42 128 18 2 248.0
1 43 126 19 1 266.0
1 44 126 19 2 96.0
1 44 125 19 3 212.0
1 45 125 19 4 265.0
1 46 125 19 5 118.0
1 46 124 19 6 267.0
1 47 124 19 7 114.0
1 47 123 19 8 196.0
1 48 123 19 9 154.0
1 48 122 19 10 257.0
1 48 121 19 11 190.0
1 49 121 19 12 170.0
1 49 120 19 13 261.0
1 49 119 19 14 341.0
1 50 119 19 15 116.0
1 50 118 19 16 257.0
1 50 117 19 17 191.0
1 51 117 19 18 211.0
1 51 116 19 19 192.0
1 52 116 19 20 117.0
1 52 115 19 21 269.0
1 53 115 19 22 49.0
1 53 114 19 23 276.0
1 53 113 19 24 217.0
1 54 113 19 25 165.0
1 54 112 19 26 236.0
1 55 112 19 27 126.0
1 55 111 19 28 267.0
1 56 111 19 29 177.0
1 56 110 19 30 255.0
1 57 110 19 31 118.0
1 57 109 19 32 225.0
1 58 109 19 33 196.0
1 58 108 19 34 285.0
1 59 108 19 35 9.0
1 59 107 20 1 185.0
1 60 107 20 2 268.0
1 61 107 20 3 33.0
1 61 106 20 4 304.0
1 62 106 20 5 96.0
1 62 105 20 6 256.0
1 63 105 20 7 118.0
1 63 104 20 8 209.0
1 64 104 20 9 271.0
1 65 104 20 10 77.0
1 65 103 20 11 258.0
1 65 102 20 12 193.0
1 66 102 20 13 161.0
1 66 101 20 14 233.0
1 67 101 20 15 125.0
1 67 100 20 16 203.0
1 68 100 20 17 146.0
1 68 99 20 18 205.0
1 69 99 20 19 193.0
1 69 98 20 20 237.0
1 70 98 20 21 104.0
1 70 97 20 22 260.0
1 71 97 20 23 72.0
1 71 96 20 24 307.0
1 72 96 20 25 23.0
1 72 95 20 26 310.0
1 73 95 20 27 83.0
1 73 94 20 28 274.0
1 74 94 20 29 84.0
1 74 93 20 30 265.0
1 75 93 20 31 84.0
1 75 92 20 32 266.0
1 75 91 20 33 178.0
1 76 91 20 34 138.0
1 76 90 20 35 266.0
1 77 90 20 36 52.0
1 77 89 20 37 298.0
1 77 88 20 38 156.0
1 78 88 20 39 187.0
1 78 87 20 40 250.0
1 79 87 20 41 80.0
1 79 86 20 42 271.0
1 79 85 20 43 179.0
1 80 85 20 44 123.0
1 80 84 20 45 305.0
1 81 84 20 46 3.0
1 81 83 20 47 351.0
1 81 82 20 48 4.0
1 82 82 20 49 341.0
1 82 81 20 50 22.0
1 83 81 20 51 305.0
1 84 81 20 52 94.0
1 84 80 20 53 286.0
1 85 80 20 54 48.0
1 85 79 20 55 278.0
1 85 78 20 56 152.0
1 86 78 20 57 186.0
1 86 77 20 58 188.0
1 87 77 20 59 146.0
1 87 76 20 60 230.0
1 88 76 20 61 104.0
1 88 75 20 62 263.0
1 89 75 20 63 101.0
1 89 74 20 64 211.0
1 90 74 20 65 148.0
1 90 73 20 66 270.0
1 90 72 20 67 186.0
1 91 72 20 68 103.0
1 91 71 20 69 269.0
1 91 70 20 70 193.0
1 92 70 20 71 120.0
1 92 69 20 72 267.0
1 92 68 20 73 266.0
1 92 67 20 74 16.0
1 93 67 20 75 309.0
1 93 66 20 76 269.0
1 94 66 20 77 1.0
1 94 65 20 78 294.0
1 94 64 20 79 209.0
1 95 64 20 80 143.0
1 95 63 20 81 219.0
1 96 63 20 82 270.0
1 97 63 20 83 226.0
1 97 62 20 84 40.0
1 98 62 20 85 311.0
1 99 62 20 86 103.0
1 99 61 20 87 162.0
1 100 61 20 88 252.0
1 101 60 21 1 182.0
1 102 60 21 2 164.0
1 102 61 21 3 139.0
1 103 61 21 4 265.0
1 104 61 21 5 256.0
1 105 61 21 6 37.0
1 105 62 21 7 279.0
1 106 62 21 8 193.0
1 106 63 21 9 79.0
1 107 63 21 10 257.0
1 108 63 21 11 250.0
1 109 63 21 12 253.0
1 110 63 21 13 250.0
1 111 63 21 14 264.0
1 112 63 21 15 148.0
1 112 62 21 16 134.0
1 113 62 21 17 276.0
1 114 62 21 18 303.0
1 115 62 21 19 55.0
1 115 63 21 20 207.0
1 116 63 21 21 254.0
1 117 63 21 22 268.0
1 118 63 21 23 120.0
1 104 70 22 1 220.0
1 105 70 22 2 185.0
1 105 69 22 3 68.0
1 106 69 22 4 253.0
1 107 69 22 5 251.0
1 108 69 22 6 252.0
1 109 69 22 7 250.0
1 110 69 22 8 268.0
1 111 69 22 9 196.0
1 111 68 22 10 126.0
1 112 68 22 11 267.0
1 113 68 22 12 168.0
1 113 67 22 13 132.0
1 114 67 22 14 230.0
1 114 66 22 15 159.0
1 115 66 22 16 165.0
1 115 65 22 17 228.0
1 116 65 22 18 252.0
1 117 65 22 19 113.0
1 117 64 22 20 203.0
1 118 64 22 21 122.0
1 119 64 23 1 238.0
1 120 64 23 2 249.0
1 121 64 23 3 162.0
1 121 61 24 1 153.0
1 121 62 24 2 253.0
1 121 63 24 3 234.0
1 122 64 25 1 208.0
1 123 64 25 2 256.0
1 124 64 25 3 86.0
1 124 54 26 1 211.0
1 124 55 26 2 250.0
1 124 56 26 3 262.0
1 124 57 26 4 251.0
1 124 58 26 5 254.0
1 124 59 26 6 169.0
1 123 59 26 7 86.0
1 123 60 26 8 283.0
1 123 61 26 9 254.0
1 123 62 26 10 263.0
1 123 63 26 11 184.0
1 124 63 26 12 89.0
1 125 63 27 1 258.0
1 126 63 27 2 253.0
1 127 63 27 3 295.0
1 128 63 27 4 5.0
1 128 62 27 5 320.0
1 129 62 27 6 63.0
1 129 61 27 7 290.0
1 130 61 27 8 59.0
1 130 60 27 9 283.0
1 131 60 27 10 97.0
1 131 59 27 11 254.0
1 132 59 27 12 113.0
1 132 58 27 13 263.0
1 133 58 27 14 270.0
1 134 58 27 15 67.0
1 134 57 27 16 212.0
1 135 57 27 17 257.0
1 136 57 27 18 252.0
1 137 57 27 19 250.0
1 138 57 27 20 255.0
1 139 57 27 21 250.0
1 140 57 27 22 250.0
1 141 57 27 23 200.0
1 74 10 28 1 60.0
1 75 10 28 2 194.0
1 75 11 28 3 62.0
1 76 11 28 4 188.0
1 76 10 28 5 76.0
1 77 10 28 6 270.0
1 78 10 28 7 272.0
1 79 10 28 8 301.0
1 80 10 28 9 4.0
1 80 11 28 10 324.0
1 80 12 28 11 57.0
1 81 12 28 12 297.0
1 81 13 28 13 57.0
1 82 13 28 14 313.0
1 83 13 28 15 53.0
1 83 14 28 16 233.0
1 84 14 28 17 231.0
1 84 15 28 18 104.0
1 85 15 28 19 227.0
1 85 16 28 20 153.0
1 86 16 28 21 231.0
1 86 17 28 22 77.0
1 87 17 28 23 302.0
1 88 17 28 24 68.0
1 88 18 28 25 225.0
1 89 18 28 26 252.0
1 89 19 28 27 42.0
1 90 19 28 28 301.0
1 91 19 28 29 97.0
1 91 20 28 30 220.0
1 92 20 28 31 187.0
1 92 21 28 32 125.0
1 93 21 28 33 300.0
1 94 21 28 34 22.0
1 94 22 28 35 295.0
1 95 22 28 36 93.0
1 95 23 28 37 289.0
1 96 23 28 38 42.0
1 96 24 28 39 280.0
1 97 24 28 40 153.0
1 97 25 28 41 148.0
1 98 25 28 42 259.0
1 98 26 28 43 57.0
1 99 26 28 44 266.0
1 100 26 28 45 243.0
1 100 27 28 46 77.0
1 101 27 28 47 257.0
1 102 27 28 48 255.0
1 103 27 28 49 254.0
1 104 27 28 50 251.0
1 105 27 28 51 171.0
1 105 28 28 52 86.0
1 106 28 28 53 288.0
1 107 28 28 54 146.0
1 107 29 28 55 152.0
1 108 29 28 56 258.0
1 109 29 28 57 251.0
1 110 29 28 58 180.0
1 110 30 28 59 165.0
1 111 30 28 60 253.0
1 112 30 28 61 252.0
1 113 30 28 62 253.0
1 114 30 28 63 60.0
1 114 31 28 64 242.0
1 115 31 28 65 181.0
1 115 32 28 66 129.0
1 116 32 28 67 280.0
1 116 33 28 68 38.0
1 117 33 28 69 317.0
1 118 33 28 70 50.0
1 118 34 28 71 274.0
1 119 34 28 72 112.0
1 119 35 28 73 221.0
1 120 35 28 74 158.0
1 120 36 28 75 175.0
1 121 36 28 76 208.0
1 121 37 28 77 116.0
1 122 37 28 78 291.0
1 122 38 28 79 26.0
1 123 38 28 80 297.0
1 124 38 28 81 181.0
1 124 39 28 82 95.0
1 125 39 28 83 329.0
1 125 40 28 84 8.0
1 126 40 28 85 295.0
1 126 41 28 86 94.0
1 123 44 29 1 296.0
1 123 43 29 2 98.0
1 124 43 29 3 295.0
1 125 43 29 4 85.0
1 125 42 29 5 267.0
1 126 42 29 6 124.0
1 127 41 30 1 238.0
1 127 42 30 2 58.0
1 128 42 30 3 304.0
1 129 42 30 4 84.0
1 129 43 30 5 199.0
1 130 43 30 6 290.0
1 131 43 30 7 19.0
1 131 44 30 8 339.0
1 132 44 30 9 15.0
1 132 45 30 10 353.0
1 133 45 30 11 9.0
1 133 46 30 12 312.0
1 134 46 30 13 82.0
1 134 47 30 14 312.0
1 134 48 30 15 23.0
1 135 48 30 16 308.0
1 135 49 30 17 70.0
1 136 49 30 18 242.0
1 136 50 30 19 265.0
1 137 50 30 20 12.0
1 137 51 30 21 282.0
1 137 52 30 22 234.0
1 138 52 30 23 65.0
1 138 53 30 24 278.0
1 139 53 30 25 106.0
1 139 54 30 26 190.0
1 140 54 30 27 194.0
1 140 55 30 28 254.0
1 141 55 30 29 39.0
1 141 56 30 30 251.0
1 142 57 31 1 222.0
1 143 57 31 2 133.0
1 143 58 31 3 163.0
1 144 58 31 4 275.0
1 145 58 31 5 163.0
1 145 59 31 6 99.0
1 146 59 31 7 252.0
1 147 59 31 8 252.0
1 148 59 31 9 279.0
1 149 59 31 10 87.0
1 149 60 31 11 187.0
1 150 60 31 12 263.0
1 151 60 31 13 241.0
1 151 61 31 14 36.0
1 152 61 31 15 270.0
1 153 61 31 16 263.0
1 154 61 31 17 254.0
1 155 61 31 18 42.0
1 155 62 31 19 223.0
1 156 62 31 20 283.0
1 156 63 31 21 37.0
1 157 63 31 22 183.0
1 123 74 32 1 175.0
1 124 74 32 2 217.0
1 124 75 32 3 108.0
1 125 75 32 4 237.0
1 125 76 32 5 157.0
1 126 76 32 6 127.0
1 126 77 32 7 254.0
1 126 78 32 8 253.0
1 126 79 32 9 254.0
1 126 80 32 10 156.0
1 127 80 32 11 188.0
1 127 81 32 12 130.0
1 128 81 32 13 312.0
1 129 81 32 14 10.0
1 129 82 32 15 234.0
1 125 82 33 1 175.0
1 126 82 33 2 252.0
1 127 82 33 3 252.0
1 128 82 33 4 236.0
1 128 83 33 5 22.0
1 129 83 33 6 137.0
1 130 82 34 1 216.0
1 131 82 34 2 250.0
1 132 82 34 3 250.0
1 133 82 34 4 250.0
1 134 82 34 5 250.0
1 135 82 34 6 250.0
1 136 82 34 7 250.0
1 137 82 34 8 250.0
1 138 82 34 9 250.0
1 139 82 34 10 250.0
1 140 82 34 11 250.0
1 141 82 34 12 250.0
1 142 82 34 13 250.0
1 143 82 34 14 250.0
1 144 82 34 15 250.0
1 145 82 34 16 250.0
1 146 82 34 17 250.0
1 147 82 34 18 250.0
1 148 82 34 19 250.0
1 149 82 34 20 250.0
1 150 82 34 21 250.0
1 151 82 34 22 250.0
1 152 82 34 23 250.0
1 153 82 34 24 250.0
1 154 82 34 25 250.0
1 155 82 34 26 250.0
1 156 82 34 27 250.0
1 157 82 34 28 250.0
1 158 82 34 29 250.0
1 159 82 34 30 250.0
1 160 82 34 31 98.0
1 124 92 35 1 76.0
1 125 92 35 2 254.0
1 126 92 35 3 230.0
1 126 91 35 4 49.0
1 127 91 35 5 257.0
1 128 91 35 6 278.0
1 129 91 35 7 78.0
1 129 90 35 8 267.0
1 130 90 35 9 87.0
1 130 89 35 10 300.0
1 131 89 35 11 29.0
1 131 88 35 12 301.0
1 127 89 36 1 146.0
1 128 89 36 2 24.0
1 128 88 36 3 294.0
1 129 88 36 4 161.0
1 129 87 36 5 110.0
1 130 87 36 6 257.0
1 131 87 36 7 164.0
1 132 87 37 1 195.0
1 132 86 37 2 255.0
1 132 85 37 3 168.0
1 133 85 37 4 179.0
1 133 84 37 5 131.0
1 134 84 37 6 290.0
1 135 84 37 7 66.0
1 135 83 37 8 196.0
1 136 83 37 9 250.0
1 137 83 37 10 252.0
1 138 83 37 11 253.0
1 139 83 37 12 251.0
1 140 83 37 13 250.0
1 141 83 37 14 250.0
1 142 83 37 15 250.0
1 143 83 37 16 251.0
1 144 83 37 17 250.0
1 145 83 37 18 250.0
1 146 83 37 19 250.0
1 147 83 37 20 250.0
1 148 83 37 21 250.0
1 149 83 37 22 250.0
1 150 83 37 23 250.0
1 151 83 37 24 250.0
1 152 83 37 25 249.0
1 153 83 37 26 252.0
1 154 83 37 27 252.0
1 155 83 37 28 252.0
1 156 83 37 29 252.0
1 157 83 37 30 254.0
1 158 83 37 31 254.0
1 159 83 37 32 250.0
1 160 83 37 33 250.0
1 161 83 37 34 76.0
1 69 132 38 1 24.0
1 70 132 38 2 271.0
1 71 132 38 3 123.0
1 71 131 38 4 148.0
1 72 131 38 5 272.0
1 73 131 38 6 175.0
1 73 130 38 7 111.0
1 74 130 38 8 265.0
1 75 130 38 9 250.0
1 76 130 38 10 254.0
1 77 130 38 11 257.0
1 78 130 38 12 175.0
1 78 129 38 13 80.0
1 79 129 38 14 255.0
1 80 129 38 15 257.0
1 81 129 38 16 260.0
1 82 129 38 17 164.0
1 82 128 38 18 100.0
1 83 128 38 19 264.0
1 84 128 38 20 264.0
1 85 128 38 21 253.0
1 86 128 38 22 155.0
1 86 127 38 23 96.0
1 87 127 38 24 250.0
1 88 127 38 25 250.0
1 89 127 38 26 250.0
1 90 127 38 27 250.0
1 91 127 38 28 253.0
1 92 127 38 29 254.0
1 93 127 38 30 275.0
1 94 127 38 31 15.0
1 94 126 38 32 278.0
1 95 126 38 33 164.0
1 95 125 38 34 158.0
1 96 125 38 35 259.0
1 97 125 38 36 258.0
1 98 125 38 37 121.0
1 98 124 38 38 134.0
1 99 124 38 39 253.0
1 100 124 38 40 251.0
1 101 124 38 41 251.0
1 102 124 38 42 250.0
1 103 124 38 43 250.0
1 104 124 38 44 250.0
1 105 124 38 45 250.0
1 106 124 38 46 250.0
1 107 124 38 47 250.0
1 108 124 38 48 250.0
1 109 124 38 49 250.0
1 110 124 38 50 250.0
1 111 124 38 51 249.0
1 112 124 38 52 251.0
1 113 124 38 53 250.0
1 114 124 38 54 250.0
1 115 124 38 55 250.0
1 116 124 38 56 250.0
1 117 124 38 57 250.0
1 118 124 38 58 251.0
1 119 124 38 59 262.0
1 120 124 38 60 49.0
1 120 123 38 61 221.0
1 121 123 38 62 297.0
1 121 122 38 63 23.0
1 122 122 38 64 299.0
1 122 121 38 65 98.0
1 123 121 38 66 223.0
1 123 120 38 67 175.0
1 124 120 38 68 147.0
1 124 119 38 69 251.0
1 125 119 38 70 77.0
1 125 118 38 71 276.0
1 126 118 38 72 79.0
1 126 117 38 73 233.0
1 127 117 38 74 200.0
1 127 116 38 75 122.0
1 128 116 38 76 173.0
1 87 108 39 1 145.0
1 88 108 39 2 260.0
1 89 108 39 3 259.0
1 90 108 39 4 171.0
1 90 109 39 5 89.0
1 91 109 39 6 258.0
1 92 109 39 7 258.0
1 93 109 39 8 245.0
1 93 110 39 9 26.0
1 94 110 39 10 306.0
1 95 110 39 11 101.0
1 95 111 39 12 243.0
1 96 111 39 13 121.0
1 96 112 39 14 211.0
1 97 112 39 15 180.0
1 97 113 39 16 145.0
1 98 113 39 17 251.0
1 98 114 39 18 68.0
1 99 114 39 19 318.0
1 100 114 39 20 17.0
1 100 115 39 21 238.0
1 101 115 39 22 251.0
1 102 115 39 23 262.0
1 103 115 39 24 259.0
1 104 115 39 25 250.0
1 105 115 39 26 250.0
1 106 115 39 27 250.0
1 107 115 39 28 249.0
1 108 115 39 29 250.0
1 109 115 39 30 250.0
1 110 115 39 31 250.0
1 111 115 39 32 250.0
1 112 115 39 33 250.0
1 113 115 39 34 251.0
1 114 115 39 35 250.0
1 115 115 39 36 250.0
1 116 115 39 37 251.0
1 117 115 39 38 209.0
1 117 116 39 39 40.0
1 118 116 39 40 251.0
1 119 116 39 41 251.0
1 120 116 39 42 251.0
1 121 116 39 43 250.0
1 122 116 39 44 250.0
1 123 116 39 45 250.0
1 124 116 39 46 250.0
1 125 116 39 47 257.0
1 126 116 39 48 157.0
1 126 115 39 49 103.0
1 127 115 39 50 80.0
1 122 113 40 1 127.0
1 123 113 40 2 257.0
1 124 113 40 3 92.0
1 124 114 40 4 183.0
1 125 114 40 5 267.0
1 126 114 40 6 82.0
1 128 115 41 1 177.0
1 128 114 41 2 251.0
1 128 113 41 3 251.0
1 128 112 41 4 252.0
1 128 111 41 5 291.0
1 128 110 41 6 117.0
1 129 110 41 7 279.0
1 130 110 41 8 254.0
1 131 110 41 9 159.0
1 131 105 42 1 146.0
1 132 105 42 2 250.0
1 133 105 42 3 207.0
1 121 126 43 1 175.0
1 122 126 43 2 250.0
1 123 126 43 3 250.0
1 124 126 43 4 251.0
1 125 126 43 5 251.0
1 126 126 43 6 250.0
1 127 126 43 7 250.0
1 128 126 43 8 250.0
1 129 126 43 9 250.0
1 130 126 43 10 128.0
1 126 128 44 1 174.0
1 127 128 44 2 251.0
1 128 128 44 3 264.0
1 129 128 44 4 264.0
1 130 128 44 5 259.0
1 131 128 44 6 205.0
1 145 109 45 1 164.0
1 146 109 45 2 250.0
1 147 109 45 3 251.0
1 148 109 45 4 250.0
1 149 109 45 5 250.0
1 150 109 45 6 250.0
1 151 109 45 7 250.0
1 152 109 45 8 251.0
1 153 109 45 9 250.0
1 154 109 45 10 250.0
1 155 109 45 11 251.0
1 156 109 45 12 251.0
1 157 109 45 13 256.0
1 158 109 45 14 253.0
1 159 109 45 15 250.0
1 160 109 45 16 250.0
1 161 109 45 17 42.0
45 0 0 0
1 1 5 0 0 0 0 0 0.003 
1.0 1.0 99.249916 1.0 
1.0 1.0 50.42976 1.0 
2 1 4 0 0 0 0 0 0.003 
1.0 1.0 107.337006 1.0 
1.0 1.0 90.69736 1.0 
3 1 4 0 0 0 0 0 0.003 
1.0 1.0 107.36522 1.0 
1.0 1.0 90.68039 1.0 
4 1 5 0 0 0 0 0 0.003 
1.0 1.0 89.41198 1.0 
1.0 1.0 50.344486 1.0 
5 1 9 0 0 0 0 0 0.003 
1.0 1.0 49.328064 1.0 
1.0 1.0 41.542816 1.0 
6 1 8 0 0 0 0 0 0.003 
1.0 1.0 100.338356 1.0 
1.0 1.0 94.33945 1.0 
7 1 8 0 0 0 0 0 0.003 
1.0 1.0 105.915184 1.0 
1.0 1.0 94.4582 1.0 
8 1 9 0 0 0 0 0 0.003 
1.0 1.0 93.18629 1.0 
1.0 1.0 41.61621 1.0 
9 1 13 0 0 0 0 0 0.003 
1.0 1.0 40.584816 2.0 
1.0 1.0 19.916548 2.0 
10 1 12 0 0 0 0 0 0.003 
1.0 1.0 81.6675 2.0 
1.0 1.0 58.36506 2.0 
11 1 12 0 0 0 0 0 0.003 
1.0 1.0 66.93487 1.0 
1.0 1.0 58.218 1.0 
12 1 13 0 0 0 0 0 0.003 
1.0 1.0 57.55091 2.0 
1.0 1.0 20.07332 2.0 
13 1 21 0 0 0 0 0 0.003 
1.0 1.0 19.462248 3.0 
1.0 1.0 14.076922 3.0 
14 1 16 0 0 0 0 0 0.003 
1.0 1.0 104.15754 0.5 
1.0 1.0 103.01547 0.5 
15 1 16 0 0 0 0 0 0.003 
1.0 1.0 106.57831 0.5 
1.0 1.0 103.01433 0.5 
16 1 20 0 0 0 0 0 0.003 
1.0 1.0 101.67644 1.0 
1.0 1.0 56.445072 1.0 
17 1 19 0 0 0 0 0 0.003 
1.0 1.0 87.8284 1.0 
1.0 1.0 78.167015 1.0 
18 1 19 0 0 0 0 0 0.003 
1.0 1.0 78.0 0.5 
1.0 1.0 77.8 0.5 
19 1 20 0 0 0 0 0 0.003 
1.0 1.0 77.141174 1.0 
1.0 1.0 56.114418 1.0 
20 1 21 0 0 0 0 0 0.003 
1.0 1.0 55.623383 2.0 
1.0 1.0 14.309386 2.0 
21 1 23 0 0 0 0 0 0.003 
100.0 1.0 13.659602 5.0 
100.0 1.0 7.878444 5.0 
22 1 23 0 0 0 0 0 0.003 
10.0 1.0 12.058617 1.0 
10.0 1.0 7.86687 1.0 
23 1 25 0 0 0 0 0 0.003 
100.0 1.0 7.693435 5.0 
100.0 1.0 7.537349 5.0 
24 1 25 0 0 0 0 0 0.003 
100.0 1.0 7.652 1.0 
100.0 1.0 7.53643 1.0 
25 1 26 0 0 0 0 0 0.003 
100.0 1.0 7.52 5.0 
100.0 1.0 7.5 5.0 
26 1 27 0 0 0 0 0 0.003 
100.0 1.0 7.867172 1.0 
100.0 1.0 7.506908 1.0 
27 1 31 0 0 0 0 0 0.003 
100.0 1.0 7.497 5.0 
100.0 1.0 7.401636 5.0 
28 1 30 0 0 0 0 0 0.003 
100.0 1.0 44.06039 3.0 
100.0 1.0 8.107616 3.0 
29 1 30 0 0 0 0 0 0.003 
100.0 1.0 8.151527 1.0 
100.0 1.0 8.010561 1.0 
30 1 31 0 0 0 0 0 0.003 
100.0 1.0 7.973699 3.0 
100.0 1.0 7.41732 3.0 
31 1 0 0 0 0 0 0 0.003 
100.0 1.0 7.020278 5.0 
100.0 1.0 0.356585 5.0 
32 1 34 0 0 0 0 0 0.003 
10.0 1.0 7.58754 1.0 
10.0 1.0 7.407051 1.0 
33 1 34 0 0 0 0 0 0.003 
100.0 1.0 7.5 1.0 
100.0 1.0 7.25 1.0 
34 1 0 0 0 0 0 0 0.003 
10.0 1.0 7.193625 1.0 
10.0 1.0 0.246678 1.0 
35 1 37 0 0 0 0 0 0.003 
10.0 1.0 7.686217 1.0 
10.0 1.0 7.327774 1.0 
36 1 37 0 0 0 0 0 0.003 
10.0 1.0 7.474781 1.0 
10.0 1.0 7.318258 1.0 
37 1 0 0 0 0 0 0 0.003 
10.0 1.0 7.123114 1.0 
10.0 1.0 0.234678 1.0 
38 1 41 0 0 0 0 0 0.003 
10.0 1.0 42.44605 1.0 
10.0 1.0 8.187758 1.0 
39 1 41 0 0 0 0 0 0.003 
10.0 1.0 25.061083 1.0 
10.0 1.0 8.065714 1.0 
40 1 41 0 0 0 0 0 0.003 
10.0 1.0 8.262071 1.0 
10.0 1.0 8.012222 1.0 
41 1 -1 0 0 0 0 0 0.003 
10.0 1.0 7.930178 1.0 
10.0 1.0 7.231244 1.0 
42 1 -1 0 0 0 0 0 0.003 
10.0 1.0 6.667105 1.0 
10.0 1.0 5.466589 1.0 
43 1 -1 0 0 0 0 0 0.003 
10.0 1.0 8.418439 1.0 
10.0 1.0 5.103172 1.0 
44 1 -1 0 0 0 0 0 0.003 
10.0 1.0 7.894833 1.0 
10.0 1.0 5.238408 1.0 
45 1 0 -1 0 0 0 0 0.003 
10.0 1.0 4.800733 1.0 
10.0 1.0 0.225444 1.0 
